
#======================================================================
# CRYSTAL DATA
#----------------------------------------------------------------------
data_VESTA_phase_1

_chemical_name_common                  'Ti8 H34 C48 N6 O36'
_cell_length_a                         16.254635
_cell_length_b                         16.254635
_cell_length_c                         16.254635
_cell_angle_alpha                      108.114594
_cell_angle_beta                       108.114594
_cell_angle_gamma                      112.219948
_cell_volume                           3300.315587
_space_group_name_H-M_alt              'P 1'
_space_group_IT_number                 1

loop_
_space_group_symop_operation_xyz
   'x, y, z'

loop_
   _atom_site_label
   _atom_site_occupancy
   _atom_site_fract_x
   _atom_site_fract_y
   _atom_site_fract_z
   _atom_site_adp_type
   _atom_site_U_iso_or_equiv
   _atom_site_type_symbol
   Ti1        1.0     0.284117     0.573249     0.866632    Uiso  ? Ti
   Ti2        1.0     0.712710     0.420704     0.135695    Uiso  ? Ti
   Ti3        1.0     0.419373     0.288799     0.707004    Uiso  ? Ti
   Ti4        1.0     0.566989     0.696524     0.286880    Uiso  ? Ti
   Ti5        1.0     0.420118     0.712052     0.136059    Uiso  ? Ti
   Ti6        1.0     0.568295     0.281769     0.864991    Uiso  ? Ti
   Ti7        1.0     0.284898     0.414892     0.705470    Uiso  ? Ti
   Ti8        1.0     0.698058     0.568402     0.286435    Uiso  ? Ti
   H1         1.0     0.537900     0.377701     0.541719    Uiso  ? H
   H2         1.0     0.166296     0.004850     0.545994    Uiso  ? H
   H3         1.0     0.837631     0.996014     0.456799    Uiso  ? H
   H4         1.0     0.381623     0.838559     0.839644    Uiso  ? H
   H5         1.0     0.618373     0.162647     0.158720    Uiso  ? H
   H6         1.0     0.001085     0.457787     0.839663    Uiso  ? H
   H7         1.0     0.995933     0.540450     0.158863    Uiso  ? H
   H8         1.0     0.457857     0.001102     0.839656    Uiso  ? H
   H9         1.0     0.162764     0.618395     0.158813    Uiso  ? H
   H10        1.0     0.618758     0.458400     0.461010    Uiso  ? H
   H11        1.0     0.378300     0.537288     0.542382    Uiso  ? H
   H12        1.0     0.002382     0.164935     0.543928    Uiso  ? H
   H13        1.0     0.432751     0.580691     0.011456    Uiso  ? H
   H14        1.0     0.579825     0.431462     0.011189    Uiso  ? H
   H15        1.0     0.387351     0.067351     0.453387    Uiso  ? H
   H16        1.0     0.615392     0.932323     0.546082    Uiso  ? H
   H17        1.0     0.067634     0.614510     0.682033    Uiso  ? H
   H18        1.0     0.932603     0.386258     0.319997    Uiso  ? H
   H19        1.0     0.067594     0.384828     0.453161    Uiso  ? H
   H20        1.0     0.385106     0.931913     0.317846    Uiso  ? H
   H21        1.0     0.539531     0.963698     0.199873    Uiso  ? H
   H22        1.0     0.574951     0.032631     0.234907    Uiso  ? H
   H23        1.0     0.589431     0.592750     0.170289    Uiso  ? H
   H24        1.0     0.462808     0.457745     0.832033    Uiso  ? H
   H25        1.0     0.806683     0.388570     0.766133    Uiso  ? H
   H26        1.0     0.768288     0.304186     0.812579    Uiso  ? H
   H27        1.0     0.907754     0.629341     0.610289    Uiso  ? H
   H28        1.0     0.926432     0.674705     0.527872    Uiso  ? H
   H29        1.0     0.617996     0.021207     0.725301    Uiso  ? H
   H30        1.0     0.680546     0.144450     0.741953    Uiso  ? H
   H31        1.0     0.415756     0.415109     0.581847    Uiso  ? H
   H32        1.0     0.458404     0.618510     0.462581    Uiso  ? H
   H33        1.0     0.836379     0.838020     0.424962    Uiso  ? H
   H34        1.0     0.019547     0.849866     0.478171    Uiso  ? H
   C1         1.0     0.827923     0.492047     0.345402    Uiso  ? C
   C2         1.0     0.145477     0.494339     0.652143    Uiso  ? C
   C3         1.0     0.515350     0.170024     0.657470    Uiso  ? C
   C4         1.0     0.506323     0.852948     0.348300    Uiso  ? C
   C5         1.0     0.920720     0.501541     0.424610    Uiso  ? C
   C6         1.0     0.078626     0.498443     0.579917    Uiso  ? C
   C7         1.0     0.503849     0.078057     0.576512    Uiso  ? C
   C8         1.0     0.502884     0.921425     0.420139    Uiso  ? C
   C9         1.0     0.958814     0.559113     0.521539    Uiso  ? C
   C10        1.0     0.036041     0.433165     0.470760    Uiso  ? C
   C11        1.0     0.555670     0.032817     0.597433    Uiso  ? C
   C12        1.0     0.430691     0.958692     0.397522    Uiso  ? C
   C13        1.0     0.569526     0.966245     0.528924    Uiso  ? C
   C14        1.0     0.432913     0.032233     0.467818    Uiso  ? C
   C15        1.0     0.965768     0.436672     0.400205    Uiso  ? C
   C16        1.0     0.039265     0.568111     0.602226    Uiso  ? C
   C17        1.0     0.546916     0.546625     0.457207    Uiso  ? C
   C18        1.0     0.451705     0.451019     0.546613    Uiso  ? C
   C19        1.0     0.906376     0.908912     0.454480    Uiso  ? C
   C20        1.0     0.097212     0.098639     0.550194    Uiso  ? C
   C21        1.0     0.544304     0.101065    -0.003264    Uiso  ? C
   C22        1.0     0.449957     0.892727    -0.004635    Uiso  ? C
   C23        1.0     0.895898     0.451364    -0.003649    Uiso  ? C
   C24        1.0     0.100108     0.544119    -0.003690    Uiso  ? C
   C25        1.0     0.604437     0.604313     0.415740    Uiso  ? C
   C26        1.0     0.186323     0.188952     0.596286    Uiso  ? C
   C27        1.0     0.587215     0.191176    -0.000922    Uiso  ? C
   C28        1.0     0.410207     0.803479    -0.004639    Uiso  ? C
   C29        1.0     0.807055     0.412460    -0.002702    Uiso  ? C
   C30        1.0     0.189761     0.585337    -0.002555    Uiso  ? C
   C31        1.0     0.476507     0.565957     0.479070    Uiso  ? C
   C32        1.0     0.519727     0.429422     0.523565    Uiso  ? C
   C33        1.0     0.906957     0.994798     0.471801    Uiso  ? C
   C34        1.0     0.092036    -0.000872     0.527543    Uiso  ? C
   C35        1.0     0.567074     0.088915     0.088124    Uiso  ? C
   C36        1.0     0.434515     0.911894     0.909989    Uiso  ? C
   C37        1.0     0.999259     0.521737     0.088414    Uiso  ? C
   C38        1.0    -0.002367     0.474919     0.909792    Uiso  ? C
   C39        1.0     1.002791     0.909834     0.476273    Uiso  ? C
   C40        1.0    -0.003961     0.090197     0.518696    Uiso  ? C
   C41        1.0     0.566188     0.475973     0.478250    Uiso  ? C
   C42        1.0     0.430006     0.519121     0.524082    Uiso  ? C
   C43        1.0     0.915161     0.439640     0.915844    Uiso  ? C
   C44        1.0     0.088878     0.566927     0.088399    Uiso  ? C
   C45        1.0     0.474916    -0.002501     0.909721    Uiso  ? C
   C46        1.0     0.519135     0.996475     0.084571    Uiso  ? C
   N1         1.0     0.554549     1.016516     0.175928    Uiso  ? N
   N2         1.0     0.826939     0.364901     0.817790    Uiso  ? N
   N3         1.0     0.929003     0.627439     0.556966    Uiso  ? N
   N4         1.0     0.629725     0.068173     0.694535    Uiso  ? N
   O1         1.0     0.836700     0.585200     0.357218    Uiso  ? O
   O2         1.0     0.171431     0.423126     0.625866    Uiso  ? O
   O3         1.0     0.549888     0.171253     0.750732    Uiso  ? O
   O4         1.0     0.438840     0.812702     0.253907    Uiso  ? O
   O5         1.0     0.576873     0.825671     0.369158    Uiso  ? O
   O6         1.0     0.425418     0.173987     0.621970    Uiso  ? O
   O7         1.0     0.819637     0.442125     0.254742    Uiso  ? O
   O8         1.0     0.181697     0.558559     0.749526    Uiso  ? O
   O9         1.0     0.623302     0.420975     0.194387    Uiso  ? O
   O10        1.0     0.377033     0.560251     0.811624    Uiso  ? O
   O11        1.0     0.758326     0.568624     0.196883    Uiso  ? O
   O12        1.0     0.227784     0.430344     0.792614    Uiso  ? O
   O13        1.0     0.423255     0.221697     0.784717    Uiso  ? O
   O14        1.0     0.569017     0.761464     0.200382    Uiso  ? O
   O15        1.0     0.564188     0.374113     0.808325    Uiso  ? O
   O16        1.0     0.421028     0.623519     0.195852    Uiso  ? O
   O17        1.0     0.630234     0.540180     0.363708    Uiso  ? O
   O18        1.0     0.185077     0.273928     0.606015    Uiso  ? O
   O19        1.0     0.569806     0.189791     0.918599    Uiso  ? O
   O20        1.0     0.428354     0.805075     0.082424    Uiso  ? O
   O21        1.0     0.714546     0.370236     0.915310    Uiso  ? O
   O22        1.0     0.274254     0.656421     0.084748    Uiso  ? O
   O23        1.0     0.273688     0.189751     0.628540    Uiso  ? O
   O24        1.0     0.536711     0.622944     0.358458    Uiso  ? O
   O25        1.0     0.809289     0.433374     0.085029    Uiso  ? O
   O26        1.0     0.188604     0.576231     0.915140    Uiso  ? O
   O27        1.0     0.660978     0.275203     0.086339    Uiso  ? O
   O28        1.0     0.367108     0.717690     0.907579    Uiso  ? O
   O29        1.0     0.651197     0.651834     0.234652    Uiso  ? O
   O30        1.0     0.397541     0.397118     0.778197    Uiso  ? O
   O31        1.0     0.611048     0.389512     0.004951    Uiso  ? O
   O32        1.0     0.388465     0.609301     0.005770    Uiso  ? O
