
#======================================================================
# CRYSTAL DATA
#----------------------------------------------------------------------
data_VESTA_phase_1

_chemical_name_common                  'Ti8 H34 C48 N6 O36'
_cell_length_a                         32.509270
_cell_length_b                         32.509270
_cell_length_c                         32.509270
_cell_angle_alpha                      108.114601
_cell_angle_beta                       108.114601
_cell_angle_gamma                      112.219948
_cell_volume                           26402.519847
_space_group_name_H-M_alt              'P 1'
_space_group_IT_number                 1

loop_
_space_group_symop_operation_xyz
   'x, y, z'

loop_
   _atom_site_label
   _atom_site_occupancy
   _atom_site_fract_x
   _atom_site_fract_y
   _atom_site_fract_z
   _atom_site_adp_type
   _atom_site_U_iso_or_equiv
   _atom_site_type_symbol
   Ti1        1.0     0.144920     0.285935     0.430855    Uiso  ? Ti
   Ti2        1.0     0.144920     0.285935     0.930855    Uiso  ? Ti
   Ti3        1.0     0.144920     0.785935     0.430855    Uiso  ? Ti
   Ti4        1.0     0.144920     0.785935     0.930855    Uiso  ? Ti
   Ti5        1.0     0.644920     0.285935     0.430855    Uiso  ? Ti
   Ti6        1.0     0.644920     0.285935     0.930855    Uiso  ? Ti
   Ti7        1.0     0.644920     0.785935     0.430855    Uiso  ? Ti
   Ti8        1.0     0.644920     0.785935     0.930855    Uiso  ? Ti
   Ti9        1.0     0.355080     0.214065     0.069145    Uiso  ? Ti
   Ti10       1.0     0.355080     0.214065     0.569145    Uiso  ? Ti
   Ti11       1.0     0.355080     0.714065     0.069145    Uiso  ? Ti
   Ti12       1.0     0.355080     0.714065     0.569145    Uiso  ? Ti
   Ti13       1.0     0.855080     0.214065     0.069145    Uiso  ? Ti
   Ti14       1.0     0.855080     0.214065     0.569145    Uiso  ? Ti
   Ti15       1.0     0.855080     0.714065     0.069145    Uiso  ? Ti
   Ti16       1.0     0.855080     0.714065     0.569145    Uiso  ? Ti
   Ti17       1.0     0.214065     0.144920     0.358985    Uiso  ? Ti
   Ti18       1.0     0.214065     0.144920     0.858985    Uiso  ? Ti
   Ti19       1.0     0.214065     0.644920     0.358985    Uiso  ? Ti
   Ti20       1.0     0.214065     0.644920     0.858985    Uiso  ? Ti
   Ti21       1.0     0.714065     0.144920     0.358985    Uiso  ? Ti
   Ti22       1.0     0.714065     0.144920     0.858985    Uiso  ? Ti
   Ti23       1.0     0.714065     0.644920     0.358985    Uiso  ? Ti
   Ti24       1.0     0.714065     0.644920     0.858985    Uiso  ? Ti
   Ti25       1.0     0.285935     0.355080     0.141015    Uiso  ? Ti
   Ti26       1.0     0.285935     0.355080     0.641015    Uiso  ? Ti
   Ti27       1.0     0.285935     0.855080     0.141015    Uiso  ? Ti
   Ti28       1.0     0.285935     0.855080     0.641015    Uiso  ? Ti
   Ti29       1.0     0.785935     0.355080     0.141015    Uiso  ? Ti
   Ti30       1.0     0.785935     0.355080     0.641015    Uiso  ? Ti
   Ti31       1.0     0.785935     0.855080     0.141015    Uiso  ? Ti
   Ti32       1.0     0.785935     0.855080     0.641015    Uiso  ? Ti
   Ti33       1.0     0.214065     0.355080     0.069145    Uiso  ? Ti
   Ti34       1.0     0.214065     0.355080     0.569145    Uiso  ? Ti
   Ti35       1.0     0.214065     0.855080     0.069145    Uiso  ? Ti
   Ti36       1.0     0.214065     0.855080     0.569145    Uiso  ? Ti
   Ti37       1.0     0.714065     0.355080     0.069145    Uiso  ? Ti
   Ti38       1.0     0.714065     0.355080     0.569145    Uiso  ? Ti
   Ti39       1.0     0.714065     0.855080     0.069145    Uiso  ? Ti
   Ti40       1.0     0.714065     0.855080     0.569145    Uiso  ? Ti
   Ti41       1.0     0.285935     0.144920     0.430855    Uiso  ? Ti
   Ti42       1.0     0.285935     0.144920     0.930855    Uiso  ? Ti
   Ti43       1.0     0.285935     0.644920     0.430855    Uiso  ? Ti
   Ti44       1.0     0.285935     0.644920     0.930855    Uiso  ? Ti
   Ti45       1.0     0.785935     0.144920     0.430855    Uiso  ? Ti
   Ti46       1.0     0.785935     0.144920     0.930855    Uiso  ? Ti
   Ti47       1.0     0.785935     0.644920     0.430855    Uiso  ? Ti
   Ti48       1.0     0.785935     0.644920     0.930855    Uiso  ? Ti
   Ti49       1.0     0.144920     0.214065     0.358985    Uiso  ? Ti
   Ti50       1.0     0.144920     0.214065     0.858985    Uiso  ? Ti
   Ti51       1.0     0.144920     0.714065     0.358985    Uiso  ? Ti
   Ti52       1.0     0.144920     0.714065     0.858985    Uiso  ? Ti
   Ti53       1.0     0.644920     0.214065     0.358985    Uiso  ? Ti
   Ti54       1.0     0.644920     0.214065     0.858985    Uiso  ? Ti
   Ti55       1.0     0.644920     0.714065     0.358985    Uiso  ? Ti
   Ti56       1.0     0.644920     0.714065     0.858985    Uiso  ? Ti
   Ti57       1.0     0.355080     0.285935     0.141015    Uiso  ? Ti
   Ti58       1.0     0.355080     0.285935     0.641015    Uiso  ? Ti
   Ti59       1.0     0.355080     0.785935     0.141015    Uiso  ? Ti
   Ti60       1.0     0.355080     0.785935     0.641015    Uiso  ? Ti
   Ti61       1.0     0.855080     0.285935     0.141015    Uiso  ? Ti
   Ti62       1.0     0.855080     0.285935     0.641015    Uiso  ? Ti
   Ti63       1.0     0.855080     0.785935     0.141015    Uiso  ? Ti
   Ti64       1.0     0.855080     0.785935     0.641015    Uiso  ? Ti
   H1         1.0     0.270389     0.190745     0.272114    Uiso  ? H
   H2         1.0     0.270389     0.190745     0.772114    Uiso  ? H
   H3         1.0     0.270389     0.690745     0.272114    Uiso  ? H
   H4         1.0     0.270389     0.690745     0.772114    Uiso  ? H
   H5         1.0     0.770389     0.190745     0.272114    Uiso  ? H
   H6         1.0     0.770389     0.190745     0.772114    Uiso  ? H
   H7         1.0     0.770389     0.690745     0.272114    Uiso  ? H
   H8         1.0     0.770389     0.690745     0.772114    Uiso  ? H
   H9         1.0     0.081368     0.001724     0.272114    Uiso  ? H
   H10        1.0     0.081368     0.001724     0.772114    Uiso  ? H
   H11        1.0     0.081368     0.501724     0.272114    Uiso  ? H
   H12        1.0     0.081368     0.501724     0.772114    Uiso  ? H
   H13        1.0     0.581369     0.001724     0.272114    Uiso  ? H
   H14        1.0     0.581369     0.001724     0.772114    Uiso  ? H
   H15        1.0     0.581369     0.501724     0.272114    Uiso  ? H
   H16        1.0     0.581369     0.501724     0.772114    Uiso  ? H
   H17        1.0     0.418631     0.498276     0.227886    Uiso  ? H
   H18        1.0     0.418631     0.498276     0.727886    Uiso  ? H
   H19        1.0     0.418631     0.998276     0.227886    Uiso  ? H
   H20        1.0     0.418631     0.998276     0.727886    Uiso  ? H
   H21        1.0     0.918631     0.498276     0.227886    Uiso  ? H
   H22        1.0     0.918631     0.498276     0.727886    Uiso  ? H
   H23        1.0     0.918631     0.998276     0.227886    Uiso  ? H
   H24        1.0     0.918631     0.998276     0.727886    Uiso  ? H
   H25        1.0     0.190745     0.418631     0.420355    Uiso  ? H
   H26        1.0     0.190745     0.418631     0.920355    Uiso  ? H
   H27        1.0     0.190745     0.918631     0.420355    Uiso  ? H
   H28        1.0     0.190745     0.918631     0.920355    Uiso  ? H
   H29        1.0     0.690745     0.418631     0.420355    Uiso  ? H
   H30        1.0     0.690745     0.418631     0.920355    Uiso  ? H
   H31        1.0     0.690745     0.918631     0.420355    Uiso  ? H
   H32        1.0     0.690745     0.918631     0.920355    Uiso  ? H
   H33        1.0     0.309255     0.081368     0.079645    Uiso  ? H
   H34        1.0     0.309255     0.081368     0.579645    Uiso  ? H
   H35        1.0     0.309255     0.581369     0.079645    Uiso  ? H
   H36        1.0     0.309255     0.581369     0.579645    Uiso  ? H
   H37        1.0     0.809255     0.081368     0.079645    Uiso  ? H
   H38        1.0     0.809255     0.081368     0.579645    Uiso  ? H
   H39        1.0     0.809255     0.581369     0.079645    Uiso  ? H
   H40        1.0     0.809255     0.581369     0.579645    Uiso  ? H
   H41        1.0     0.001724     0.229611     0.420355    Uiso  ? H
   H42        1.0     0.001724     0.229611     0.920355    Uiso  ? H
   H43        1.0     0.001724     0.729611     0.420355    Uiso  ? H
   H44        1.0     0.001724     0.729611     0.920355    Uiso  ? H
   H45        1.0     0.501724     0.229611     0.420355    Uiso  ? H
   H46        1.0     0.501724     0.229611     0.920355    Uiso  ? H
   H47        1.0     0.501724     0.729611     0.420355    Uiso  ? H
   H48        1.0     0.501724     0.729611     0.920355    Uiso  ? H
   H49        1.0     0.498276     0.270389     0.079645    Uiso  ? H
   H50        1.0     0.498276     0.270389     0.579645    Uiso  ? H
   H51        1.0     0.498276     0.770389     0.079645    Uiso  ? H
   H52        1.0     0.498276     0.770389     0.579645    Uiso  ? H
   H53        1.0     0.998276     0.270389     0.079645    Uiso  ? H
   H54        1.0     0.998276     0.270389     0.579645    Uiso  ? H
   H55        1.0     0.998276     0.770389     0.079645    Uiso  ? H
   H56        1.0     0.998276     0.770389     0.579645    Uiso  ? H
   H57        1.0     0.229611     0.001724     0.420355    Uiso  ? H
   H58        1.0     0.229611     0.001724     0.920355    Uiso  ? H
   H59        1.0     0.229611     0.501724     0.420355    Uiso  ? H
   H60        1.0     0.229611     0.501724     0.920355    Uiso  ? H
   H61        1.0     0.729611     0.001724     0.420355    Uiso  ? H
   H62        1.0     0.729611     0.001724     0.920355    Uiso  ? H
   H63        1.0     0.729611     0.501724     0.420355    Uiso  ? H
   H64        1.0     0.729611     0.501724     0.920355    Uiso  ? H
   H65        1.0     0.081368     0.309255     0.079645    Uiso  ? H
   H66        1.0     0.081368     0.309255     0.579645    Uiso  ? H
   H67        1.0     0.081368     0.809255     0.079645    Uiso  ? H
   H68        1.0     0.081368     0.809255     0.579645    Uiso  ? H
   H69        1.0     0.581369     0.309255     0.079645    Uiso  ? H
   H70        1.0     0.581369     0.309255     0.579645    Uiso  ? H
   H71        1.0     0.581369     0.809255     0.079645    Uiso  ? H
   H72        1.0     0.581369     0.809255     0.579645    Uiso  ? H
   H73        1.0     0.309255     0.229611     0.227886    Uiso  ? H
   H74        1.0     0.309255     0.229611     0.727886    Uiso  ? H
   H75        1.0     0.309255     0.729611     0.227886    Uiso  ? H
   H76        1.0     0.309255     0.729611     0.727886    Uiso  ? H
   H77        1.0     0.809255     0.229611     0.227886    Uiso  ? H
   H78        1.0     0.809255     0.229611     0.727886    Uiso  ? H
   H79        1.0     0.809255     0.729611     0.227886    Uiso  ? H
   H80        1.0     0.809255     0.729611     0.727886    Uiso  ? H
   H81        1.0     0.190745     0.270389     0.272114    Uiso  ? H
   H82        1.0     0.190745     0.270389     0.772114    Uiso  ? H
   H83        1.0     0.190745     0.770389     0.272114    Uiso  ? H
   H84        1.0     0.190745     0.770389     0.772114    Uiso  ? H
   H85        1.0     0.690745     0.270389     0.272114    Uiso  ? H
   H86        1.0     0.690745     0.270389     0.772114    Uiso  ? H
   H87        1.0     0.690745     0.770389     0.272114    Uiso  ? H
   H88        1.0     0.690745     0.770389     0.772114    Uiso  ? H
   H89        1.0     0.001724     0.081368     0.272114    Uiso  ? H
   H90        1.0     0.001724     0.081368     0.772114    Uiso  ? H
   H91        1.0     0.001724     0.581369     0.272114    Uiso  ? H
   H92        1.0     0.001724     0.581369     0.772114    Uiso  ? H
   H93        1.0     0.501724     0.081368     0.272114    Uiso  ? H
   H94        1.0     0.501724     0.081368     0.772114    Uiso  ? H
   H95        1.0     0.501724     0.581369     0.272114    Uiso  ? H
   H96        1.0     0.501724     0.581369     0.772114    Uiso  ? H
   H97        1.0     0.213098     0.286902     0.000000    Uiso  ? H
   H98        1.0     0.213098     0.286902     0.500000    Uiso  ? H
   H99        1.0     0.213098     0.786902     0.000000    Uiso  ? H
   H100       1.0     0.213098     0.786902     0.500000    Uiso  ? H
   H101       1.0     0.713098     0.286902     0.000000    Uiso  ? H
   H102       1.0     0.713098     0.286902     0.500000    Uiso  ? H
   H103       1.0     0.713098     0.786902     0.000000    Uiso  ? H
   H104       1.0     0.713098     0.786902     0.500000    Uiso  ? H
   H105       1.0     0.286902     0.213098     0.000000    Uiso  ? H
   H106       1.0     0.286902     0.213098     0.500000    Uiso  ? H
   H107       1.0     0.286902     0.713098     0.000000    Uiso  ? H
   H108       1.0     0.286902     0.713098     0.500000    Uiso  ? H
   H109       1.0     0.786902     0.213098     0.000000    Uiso  ? H
   H110       1.0     0.786902     0.213098     0.500000    Uiso  ? H
   H111       1.0     0.786902     0.713098     0.000000    Uiso  ? H
   H112       1.0     0.786902     0.713098     0.500000    Uiso  ? H
   H113       1.0     0.213098     0.213098     0.426196    Uiso  ? H
   H114       1.0     0.213098     0.213098     0.926196    Uiso  ? H
   H115       1.0     0.213098     0.713098     0.426196    Uiso  ? H
   H116       1.0     0.213098     0.713098     0.926196    Uiso  ? H
   H117       1.0     0.713098     0.213098     0.426196    Uiso  ? H
   H118       1.0     0.713098     0.213098     0.926196    Uiso  ? H
   H119       1.0     0.713098     0.713098     0.426196    Uiso  ? H
   H120       1.0     0.713098     0.713098     0.926196    Uiso  ? H
   H121       1.0     0.286902     0.286902     0.073804    Uiso  ? H
   H122       1.0     0.286902     0.286902     0.573804    Uiso  ? H
   H123       1.0     0.286902     0.786902     0.073804    Uiso  ? H
   H124       1.0     0.286902     0.786902     0.573804    Uiso  ? H
   H125       1.0     0.786902     0.286902     0.073804    Uiso  ? H
   H126       1.0     0.786902     0.286902     0.573804    Uiso  ? H
   H127       1.0     0.786902     0.786902     0.073804    Uiso  ? H
   H128       1.0     0.786902     0.786902     0.573804    Uiso  ? H
   H129       1.0     0.193632     0.032863     0.226496    Uiso  ? H
   H130       1.0     0.193632     0.032863     0.726496    Uiso  ? H
   H131       1.0     0.193632     0.532863     0.226496    Uiso  ? H
   H132       1.0     0.193632     0.532863     0.726496    Uiso  ? H
   H133       1.0     0.693632     0.032863     0.226496    Uiso  ? H
   H134       1.0     0.693632     0.032863     0.726496    Uiso  ? H
   H135       1.0     0.693632     0.532863     0.226496    Uiso  ? H
   H136       1.0     0.693632     0.532863     0.726496    Uiso  ? H
   H137       1.0     0.306367     0.467137     0.273504    Uiso  ? H
   H138       1.0     0.306367     0.467137     0.773504    Uiso  ? H
   H139       1.0     0.306367     0.967137     0.273504    Uiso  ? H
   H140       1.0     0.306367     0.967137     0.773504    Uiso  ? H
   H141       1.0     0.806368     0.467137     0.273504    Uiso  ? H
   H142       1.0     0.806368     0.467137     0.773504    Uiso  ? H
   H143       1.0     0.806368     0.967137     0.273504    Uiso  ? H
   H144       1.0     0.806368     0.967137     0.773504    Uiso  ? H
   H145       1.0     0.032863     0.306367     0.339231    Uiso  ? H
   H146       1.0     0.032863     0.306367     0.839230    Uiso  ? H
   H147       1.0     0.032863     0.806368     0.339231    Uiso  ? H
   H148       1.0     0.032863     0.806368     0.839230    Uiso  ? H
   H149       1.0     0.532863     0.306367     0.339231    Uiso  ? H
   H150       1.0     0.532863     0.306367     0.839230    Uiso  ? H
   H151       1.0     0.532863     0.806368     0.339231    Uiso  ? H
   H152       1.0     0.532863     0.806368     0.839230    Uiso  ? H
   H153       1.0     0.467137     0.193632     0.160770    Uiso  ? H
   H154       1.0     0.467137     0.193632     0.660770    Uiso  ? H
   H155       1.0     0.467137     0.693632     0.160770    Uiso  ? H
   H156       1.0     0.467137     0.693632     0.660770    Uiso  ? H
   H157       1.0     0.967137     0.193632     0.160770    Uiso  ? H
   H158       1.0     0.967137     0.193632     0.660770    Uiso  ? H
   H159       1.0     0.967137     0.693632     0.160770    Uiso  ? H
   H160       1.0     0.967137     0.693632     0.660770    Uiso  ? H
   H161       1.0     0.032863     0.193632     0.226496    Uiso  ? H
   H162       1.0     0.032863     0.193632     0.726496    Uiso  ? H
   H163       1.0     0.032863     0.693632     0.226496    Uiso  ? H
   H164       1.0     0.032863     0.693632     0.726496    Uiso  ? H
   H165       1.0     0.532863     0.193632     0.226496    Uiso  ? H
   H166       1.0     0.532863     0.193632     0.726496    Uiso  ? H
   H167       1.0     0.532863     0.693632     0.226496    Uiso  ? H
   H168       1.0     0.532863     0.693632     0.726496    Uiso  ? H
   H169       1.0     0.193632     0.467137     0.160770    Uiso  ? H
   H170       1.0     0.193632     0.467137     0.660770    Uiso  ? H
   H171       1.0     0.193632     0.967137     0.160770    Uiso  ? H
   H172       1.0     0.193632     0.967137     0.660770    Uiso  ? H
   H173       1.0     0.693632     0.467137     0.160770    Uiso  ? H
   H174       1.0     0.693632     0.467137     0.660770    Uiso  ? H
   H175       1.0     0.693632     0.967137     0.160770    Uiso  ? H
   H176       1.0     0.693632     0.967137     0.660770    Uiso  ? H
   H177       1.0     0.267269     0.478079     0.097847    Uiso  ? H
   H178       1.0     0.267269     0.478079     0.597847    Uiso  ? H
   H179       1.0     0.267269     0.978079     0.097847    Uiso  ? H
   H180       1.0     0.267269     0.978079     0.597847    Uiso  ? H
   H181       1.0     0.767269     0.478079     0.097847    Uiso  ? H
   H182       1.0     0.767269     0.478079     0.597847    Uiso  ? H
   H183       1.0     0.767269     0.978079     0.097847    Uiso  ? H
   H184       1.0     0.767269     0.978079     0.597847    Uiso  ? H
   H185       1.0     0.287457     0.016486     0.117027    Uiso  ? H
   H186       1.0     0.287457     0.016486     0.617027    Uiso  ? H
   H187       1.0     0.287457     0.516486     0.117027    Uiso  ? H
   H188       1.0     0.287457     0.516486     0.617027    Uiso  ? H
   H189       1.0     0.787457     0.016486     0.117027    Uiso  ? H
   H190       1.0     0.787457     0.016486     0.617027    Uiso  ? H
   H191       1.0     0.787457     0.516486     0.117027    Uiso  ? H
   H192       1.0     0.787457     0.516486     0.617027    Uiso  ? H
   H193       1.0     0.395826     0.181303     0.385442    Uiso  ? H
   H194       1.0     0.395826     0.181303     0.885442    Uiso  ? H
   H195       1.0     0.395826     0.681303     0.385442    Uiso  ? H
   H196       1.0     0.395826     0.681303     0.885442    Uiso  ? H
   H197       1.0     0.895826     0.181303     0.385442    Uiso  ? H
   H198       1.0     0.895826     0.181303     0.885442    Uiso  ? H
   H199       1.0     0.895826     0.681303     0.385442    Uiso  ? H
   H200       1.0     0.895826     0.681303     0.885442    Uiso  ? H
   H201       1.0     0.383866     0.158550     0.399684    Uiso  ? H
   H202       1.0     0.383866     0.158550     0.899684    Uiso  ? H
   H203       1.0     0.383866     0.658549     0.399684    Uiso  ? H
   H204       1.0     0.383866     0.658549     0.899684    Uiso  ? H
   H205       1.0     0.883865     0.158550     0.399684    Uiso  ? H
   H206       1.0     0.883865     0.158550     0.899684    Uiso  ? H
   H207       1.0     0.883865     0.658549     0.399684    Uiso  ? H
   H208       1.0     0.883865     0.658549     0.899684    Uiso  ? H
   H209       1.0     0.452107     0.319806     0.293164    Uiso  ? H
   H210       1.0     0.452107     0.319806     0.793164    Uiso  ? H
   H211       1.0     0.452107     0.819806     0.293164    Uiso  ? H
   H212       1.0     0.452107     0.819806     0.793164    Uiso  ? H
   H213       1.0     0.952107     0.319806     0.293164    Uiso  ? H
   H214       1.0     0.952107     0.319806     0.793164    Uiso  ? H
   H215       1.0     0.952107     0.819806     0.293164    Uiso  ? H
   H216       1.0     0.952107     0.819806     0.793164    Uiso  ? H
   H217       1.0     0.458667     0.332284     0.269699    Uiso  ? H
   H218       1.0     0.458667     0.332284     0.769699    Uiso  ? H
   H219       1.0     0.458667     0.832284     0.269699    Uiso  ? H
   H220       1.0     0.458667     0.832284     0.769699    Uiso  ? H
   H221       1.0     0.958667     0.332284     0.269699    Uiso  ? H
   H222       1.0     0.958667     0.332284     0.769699    Uiso  ? H
   H223       1.0     0.958667     0.832284     0.269699    Uiso  ? H
   H224       1.0     0.958667     0.832284     0.769699    Uiso  ? H
   H225       1.0     0.316797     0.027020     0.368553    Uiso  ? H
   H226       1.0     0.316797     0.027020     0.868554    Uiso  ? H
   H227       1.0     0.316797     0.527020     0.368553    Uiso  ? H
   H228       1.0     0.316797     0.527020     0.868554    Uiso  ? H
   H229       1.0     0.816797     0.027020     0.368553    Uiso  ? H
   H230       1.0     0.816797     0.027020     0.868554    Uiso  ? H
   H231       1.0     0.816797     0.527020     0.368553    Uiso  ? H
   H232       1.0     0.816797     0.527020     0.868554    Uiso  ? H
   H233       1.0     0.335294     0.062207     0.372764    Uiso  ? H
   H234       1.0     0.335294     0.062207     0.872764    Uiso  ? H
   H235       1.0     0.335294     0.562207     0.372764    Uiso  ? H
   H236       1.0     0.335294     0.562207     0.872764    Uiso  ? H
   H237       1.0     0.835293     0.062207     0.372764    Uiso  ? H
   H238       1.0     0.835293     0.062207     0.872764    Uiso  ? H
   H239       1.0     0.835293     0.562207     0.372764    Uiso  ? H
   H240       1.0     0.835293     0.562207     0.872764    Uiso  ? H
   H241       1.0     0.202550     0.202583     0.288500    Uiso  ? H
   H242       1.0     0.202550     0.202583     0.788499    Uiso  ? H
   H243       1.0     0.202550     0.702583     0.288500    Uiso  ? H
   H244       1.0     0.202550     0.702583     0.788499    Uiso  ? H
   H245       1.0     0.702550     0.202583     0.288500    Uiso  ? H
   H246       1.0     0.702550     0.202583     0.788499    Uiso  ? H
   H247       1.0     0.702550     0.702583     0.288500    Uiso  ? H
   H248       1.0     0.702550     0.702583     0.788499    Uiso  ? H
   H249       1.0     0.228976     0.307047     0.230778    Uiso  ? H
   H250       1.0     0.228976     0.307047     0.730778    Uiso  ? H
   H251       1.0     0.228976     0.807046     0.230778    Uiso  ? H
   H252       1.0     0.228976     0.807046     0.730778    Uiso  ? H
   H253       1.0     0.728975     0.307047     0.230778    Uiso  ? H
   H254       1.0     0.728975     0.307047     0.730778    Uiso  ? H
   H255       1.0     0.728975     0.807046     0.230778    Uiso  ? H
   H256       1.0     0.728975     0.807046     0.730778    Uiso  ? H
   H257       1.0     0.419044     0.418130     0.213335    Uiso  ? H
   H258       1.0     0.419044     0.418130     0.713335    Uiso  ? H
   H259       1.0     0.419044     0.918131     0.213335    Uiso  ? H
   H260       1.0     0.419044     0.918131     0.713335    Uiso  ? H
   H261       1.0     0.919044     0.418130     0.213335    Uiso  ? H
   H262       1.0     0.919044     0.418130     0.713335    Uiso  ? H
   H263       1.0     0.919044     0.918131     0.213335    Uiso  ? H
   H264       1.0     0.919044     0.918131     0.713335    Uiso  ? H
   H265       1.0     0.509772     0.424936     0.239085    Uiso  ? H
   H266       1.0     0.509772     0.424936     0.739085    Uiso  ? H
   H267       1.0     0.509772     0.924936     0.239085    Uiso  ? H
   H268       1.0     0.509772     0.924936     0.739085    Uiso  ? H
   H269       1.0     0.009771     0.424936     0.239085    Uiso  ? H
   H270       1.0     0.009771     0.424936     0.739085    Uiso  ? H
   H271       1.0     0.009771     0.924936     0.239085    Uiso  ? H
   H272       1.0     0.009771     0.924936     0.739085    Uiso  ? H
   C1         1.0     0.424277     0.250000     0.174277    Uiso  ? C
   C2         1.0     0.424277     0.250000     0.674276    Uiso  ? C
   C3         1.0     0.424277     0.750000     0.174277    Uiso  ? C
   C4         1.0     0.424277     0.750000     0.674276    Uiso  ? C
   C5         1.0     0.924276     0.250000     0.174277    Uiso  ? C
   C6         1.0     0.924276     0.250000     0.674276    Uiso  ? C
   C7         1.0     0.924276     0.750000     0.174277    Uiso  ? C
   C8         1.0     0.924276     0.750000     0.674276    Uiso  ? C
   C9         1.0     0.075723     0.250000     0.325723    Uiso  ? C
   C10        1.0     0.075723     0.250000     0.825724    Uiso  ? C
   C11        1.0     0.075723     0.750000     0.325723    Uiso  ? C
   C12        1.0     0.075723     0.750000     0.825724    Uiso  ? C
   C13        1.0     0.575724     0.250000     0.325723    Uiso  ? C
   C14        1.0     0.575724     0.250000     0.825724    Uiso  ? C
   C15        1.0     0.575724     0.750000     0.325723    Uiso  ? C
   C16        1.0     0.575724     0.750000     0.825724    Uiso  ? C
   C17        1.0     0.250000     0.075723     0.325723    Uiso  ? C
   C18        1.0     0.250000     0.075723     0.825724    Uiso  ? C
   C19        1.0     0.250000     0.575724     0.325723    Uiso  ? C
   C20        1.0     0.250000     0.575724     0.825724    Uiso  ? C
   C21        1.0     0.750000     0.075723     0.325723    Uiso  ? C
   C22        1.0     0.750000     0.075723     0.825724    Uiso  ? C
   C23        1.0     0.750000     0.575724     0.325723    Uiso  ? C
   C24        1.0     0.750000     0.575724     0.825724    Uiso  ? C
   C25        1.0     0.250000     0.424277     0.174277    Uiso  ? C
   C26        1.0     0.250000     0.424277     0.674276    Uiso  ? C
   C27        1.0     0.250000     0.924276     0.174277    Uiso  ? C
   C28        1.0     0.250000     0.924276     0.674276    Uiso  ? C
   C29        1.0     0.750000     0.424277     0.174277    Uiso  ? C
   C30        1.0     0.750000     0.424277     0.674276    Uiso  ? C
   C31        1.0     0.750000     0.924276     0.174277    Uiso  ? C
   C32        1.0     0.750000     0.924276     0.674276    Uiso  ? C
   C33        1.0     0.463356     0.250000     0.213356    Uiso  ? C
   C34        1.0     0.463356     0.250000     0.713356    Uiso  ? C
   C35        1.0     0.463356     0.750000     0.213356    Uiso  ? C
   C36        1.0     0.463356     0.750000     0.713356    Uiso  ? C
   C37        1.0     0.963356     0.250000     0.213356    Uiso  ? C
   C38        1.0     0.963356     0.250000     0.713356    Uiso  ? C
   C39        1.0     0.963356     0.750000     0.213356    Uiso  ? C
   C40        1.0     0.963356     0.750000     0.713356    Uiso  ? C
   C41        1.0     0.036644     0.250000     0.286644    Uiso  ? C
   C42        1.0     0.036644     0.250000     0.786644    Uiso  ? C
   C43        1.0     0.036644     0.750000     0.286644    Uiso  ? C
   C44        1.0     0.036644     0.750000     0.786644    Uiso  ? C
   C45        1.0     0.536644     0.250000     0.286644    Uiso  ? C
   C46        1.0     0.536644     0.250000     0.786644    Uiso  ? C
   C47        1.0     0.536644     0.750000     0.286644    Uiso  ? C
   C48        1.0     0.536644     0.750000     0.786644    Uiso  ? C
   C49        1.0     0.250000     0.036644     0.286644    Uiso  ? C
   C50        1.0     0.250000     0.036644     0.786644    Uiso  ? C
   C51        1.0     0.250000     0.536644     0.286644    Uiso  ? C
   C52        1.0     0.250000     0.536644     0.786644    Uiso  ? C
   C53        1.0     0.750000     0.036644     0.286644    Uiso  ? C
   C54        1.0     0.750000     0.036644     0.786644    Uiso  ? C
   C55        1.0     0.750000     0.536644     0.286644    Uiso  ? C
   C56        1.0     0.750000     0.536644     0.786644    Uiso  ? C
   C57        1.0     0.250000     0.463356     0.213356    Uiso  ? C
   C58        1.0     0.250000     0.463356     0.713356    Uiso  ? C
   C59        1.0     0.250000     0.963356     0.213356    Uiso  ? C
   C60        1.0     0.250000     0.963356     0.713356    Uiso  ? C
   C61        1.0     0.750000     0.463356     0.213356    Uiso  ? C
   C62        1.0     0.750000     0.463356     0.713356    Uiso  ? C
   C63        1.0     0.750000     0.963356     0.213356    Uiso  ? C
   C64        1.0     0.750000     0.963356     0.713356    Uiso  ? C
   C65        1.0     0.481773     0.281858     0.263631    Uiso  ? C
   C66        1.0     0.481773     0.281858     0.763631    Uiso  ? C
   C67        1.0     0.481773     0.781858     0.263631    Uiso  ? C
   C68        1.0     0.481773     0.781858     0.763631    Uiso  ? C
   C69        1.0     0.981772     0.281858     0.263631    Uiso  ? C
   C70        1.0     0.981772     0.281858     0.763631    Uiso  ? C
   C71        1.0     0.981772     0.781858     0.263631    Uiso  ? C
   C72        1.0     0.981772     0.781858     0.763631    Uiso  ? C
   C73        1.0     0.018228     0.218142     0.236370    Uiso  ? C
   C74        1.0     0.018228     0.218142     0.736369    Uiso  ? C
   C75        1.0     0.018228     0.718142     0.236370    Uiso  ? C
   C76        1.0     0.018228     0.718142     0.736369    Uiso  ? C
   C77        1.0     0.518228     0.218142     0.236370    Uiso  ? C
   C78        1.0     0.518228     0.218142     0.736369    Uiso  ? C
   C79        1.0     0.518228     0.718142     0.236370    Uiso  ? C
   C80        1.0     0.518228     0.718142     0.736369    Uiso  ? C
   C81        1.0     0.281858     0.018228     0.300086    Uiso  ? C
   C82        1.0     0.281858     0.018228     0.800085    Uiso  ? C
   C83        1.0     0.281858     0.518228     0.300086    Uiso  ? C
   C84        1.0     0.281858     0.518228     0.800085    Uiso  ? C
   C85        1.0     0.781858     0.018228     0.300086    Uiso  ? C
   C86        1.0     0.781858     0.018228     0.800085    Uiso  ? C
   C87        1.0     0.781858     0.518228     0.300086    Uiso  ? C
   C88        1.0     0.781858     0.518228     0.800085    Uiso  ? C
   C89        1.0     0.218142     0.481773     0.199915    Uiso  ? C
   C90        1.0     0.218142     0.481773     0.699915    Uiso  ? C
   C91        1.0     0.218142     0.981772     0.199915    Uiso  ? C
   C92        1.0     0.218142     0.981772     0.699915    Uiso  ? C
   C93        1.0     0.718142     0.481773     0.199915    Uiso  ? C
   C94        1.0     0.718142     0.481773     0.699915    Uiso  ? C
   C95        1.0     0.718142     0.981772     0.199915    Uiso  ? C
   C96        1.0     0.718142     0.981772     0.699915    Uiso  ? C
   C97        1.0     0.281858     0.481773     0.263631    Uiso  ? C
   C98        1.0     0.281858     0.481773     0.763631    Uiso  ? C
   C99        1.0     0.281858     0.981772     0.263631    Uiso  ? C
   C100       1.0     0.281858     0.981772     0.763631    Uiso  ? C
   C101       1.0     0.781858     0.481773     0.263631    Uiso  ? C
   C102       1.0     0.781858     0.481773     0.763631    Uiso  ? C
   C103       1.0     0.781858     0.981772     0.263631    Uiso  ? C
   C104       1.0     0.781858     0.981772     0.763631    Uiso  ? C
   C105       1.0     0.218142     0.018228     0.236370    Uiso  ? C
   C106       1.0     0.218142     0.018228     0.736369    Uiso  ? C
   C107       1.0     0.218142     0.518228     0.236370    Uiso  ? C
   C108       1.0     0.218142     0.518228     0.736369    Uiso  ? C
   C109       1.0     0.718142     0.018228     0.236370    Uiso  ? C
   C110       1.0     0.718142     0.018228     0.736369    Uiso  ? C
   C111       1.0     0.718142     0.518228     0.236370    Uiso  ? C
   C112       1.0     0.718142     0.518228     0.736369    Uiso  ? C
   C113       1.0     0.481773     0.218142     0.199915    Uiso  ? C
   C114       1.0     0.481773     0.218142     0.699915    Uiso  ? C
   C115       1.0     0.481773     0.718142     0.199915    Uiso  ? C
   C116       1.0     0.481773     0.718142     0.699915    Uiso  ? C
   C117       1.0     0.981772     0.218142     0.199915    Uiso  ? C
   C118       1.0     0.981772     0.218142     0.699915    Uiso  ? C
   C119       1.0     0.981772     0.718142     0.199915    Uiso  ? C
   C120       1.0     0.981772     0.718142     0.699915    Uiso  ? C
   C121       1.0     0.018228     0.281858     0.300086    Uiso  ? C
   C122       1.0     0.018228     0.281858     0.800085    Uiso  ? C
   C123       1.0     0.018228     0.781858     0.300086    Uiso  ? C
   C124       1.0     0.018228     0.781858     0.800085    Uiso  ? C
   C125       1.0     0.518228     0.281858     0.300086    Uiso  ? C
   C126       1.0     0.518228     0.281858     0.800085    Uiso  ? C
   C127       1.0     0.518228     0.781858     0.300086    Uiso  ? C
   C128       1.0     0.518228     0.781858     0.800085    Uiso  ? C
   C129       1.0     0.271746     0.271746     0.225483    Uiso  ? C
   C130       1.0     0.271746     0.271746     0.725483    Uiso  ? C
   C131       1.0     0.271746     0.771746     0.225483    Uiso  ? C
   C132       1.0     0.271746     0.771746     0.725483    Uiso  ? C
   C133       1.0     0.771746     0.271746     0.225483    Uiso  ? C
   C134       1.0     0.771746     0.271746     0.725483    Uiso  ? C
   C135       1.0     0.771746     0.771746     0.225483    Uiso  ? C
   C136       1.0     0.771746     0.771746     0.725483    Uiso  ? C
   C137       1.0     0.228254     0.228254     0.274517    Uiso  ? C
   C138       1.0     0.228254     0.228254     0.774517    Uiso  ? C
   C139       1.0     0.228254     0.728254     0.274517    Uiso  ? C
   C140       1.0     0.228254     0.728254     0.774517    Uiso  ? C
   C141       1.0     0.728254     0.228254     0.274517    Uiso  ? C
   C142       1.0     0.728254     0.228254     0.774517    Uiso  ? C
   C143       1.0     0.728254     0.728254     0.274517    Uiso  ? C
   C144       1.0     0.728254     0.728254     0.774517    Uiso  ? C
   C145       1.0     0.453737     0.453737     0.225483    Uiso  ? C
   C146       1.0     0.453737     0.453737     0.725483    Uiso  ? C
   C147       1.0     0.453737     0.953737     0.225483    Uiso  ? C
   C148       1.0     0.453737     0.953737     0.725483    Uiso  ? C
   C149       1.0     0.953737     0.453737     0.225483    Uiso  ? C
   C150       1.0     0.953737     0.453737     0.725483    Uiso  ? C
   C151       1.0     0.953737     0.953737     0.225483    Uiso  ? C
   C152       1.0     0.953737     0.953737     0.725483    Uiso  ? C
   C153       1.0     0.046262     0.046262     0.274517    Uiso  ? C
   C154       1.0     0.046262     0.046262     0.774517    Uiso  ? C
   C155       1.0     0.046262     0.546263     0.274517    Uiso  ? C
   C156       1.0     0.046262     0.546263     0.774517    Uiso  ? C
   C157       1.0     0.546263     0.046262     0.274517    Uiso  ? C
   C158       1.0     0.546263     0.046262     0.774517    Uiso  ? C
   C159       1.0     0.546263     0.546263     0.274517    Uiso  ? C
   C160       1.0     0.546263     0.546263     0.774517    Uiso  ? C
   C161       1.0     0.271746     0.046262     0.000000    Uiso  ? C
   C162       1.0     0.271746     0.046262     0.500000    Uiso  ? C
   C163       1.0     0.271746     0.546263     0.000000    Uiso  ? C
   C164       1.0     0.271746     0.546263     0.500000    Uiso  ? C
   C165       1.0     0.771746     0.046262     0.000000    Uiso  ? C
   C166       1.0     0.771746     0.046262     0.500000    Uiso  ? C
   C167       1.0     0.771746     0.546263     0.000000    Uiso  ? C
   C168       1.0     0.771746     0.546263     0.500000    Uiso  ? C
   C169       1.0     0.228254     0.453737     0.000000    Uiso  ? C
   C170       1.0     0.228254     0.453737     0.500000    Uiso  ? C
   C171       1.0     0.228254     0.953737     0.000000    Uiso  ? C
   C172       1.0     0.228254     0.953737     0.500000    Uiso  ? C
   C173       1.0     0.728254     0.453737     0.000000    Uiso  ? C
   C174       1.0     0.728254     0.453737     0.500000    Uiso  ? C
   C175       1.0     0.728254     0.953737     0.000000    Uiso  ? C
   C176       1.0     0.728254     0.953737     0.500000    Uiso  ? C
   C177       1.0     0.453737     0.228254     0.000000    Uiso  ? C
   C178       1.0     0.453737     0.228254     0.500000    Uiso  ? C
   C179       1.0     0.453737     0.728254     0.000000    Uiso  ? C
   C180       1.0     0.453737     0.728254     0.500000    Uiso  ? C
   C181       1.0     0.953737     0.228254     0.000000    Uiso  ? C
   C182       1.0     0.953737     0.228254     0.500000    Uiso  ? C
   C183       1.0     0.953737     0.728254     0.000000    Uiso  ? C
   C184       1.0     0.953737     0.728254     0.500000    Uiso  ? C
   C185       1.0     0.046262     0.271746     0.000000    Uiso  ? C
   C186       1.0     0.046262     0.271746     0.500000    Uiso  ? C
   C187       1.0     0.046262     0.771746     0.000000    Uiso  ? C
   C188       1.0     0.046262     0.771746     0.500000    Uiso  ? C
   C189       1.0     0.546263     0.271746     0.000000    Uiso  ? C
   C190       1.0     0.546263     0.271746     0.500000    Uiso  ? C
   C191       1.0     0.546263     0.771746     0.000000    Uiso  ? C
   C192       1.0     0.546263     0.771746     0.500000    Uiso  ? C
   C193       1.0     0.294335     0.294335     0.198594    Uiso  ? C
   C194       1.0     0.294335     0.294335     0.698594    Uiso  ? C
   C195       1.0     0.294335     0.794334     0.198594    Uiso  ? C
   C196       1.0     0.294335     0.794334     0.698594    Uiso  ? C
   C197       1.0     0.794334     0.294335     0.198594    Uiso  ? C
   C198       1.0     0.794334     0.294335     0.698594    Uiso  ? C
   C199       1.0     0.794334     0.794334     0.198594    Uiso  ? C
   C200       1.0     0.794334     0.794334     0.698594    Uiso  ? C
   C201       1.0     0.095740     0.095740     0.301406    Uiso  ? C
   C202       1.0     0.095740     0.095740     0.801406    Uiso  ? C
   C203       1.0     0.095740     0.595740     0.301406    Uiso  ? C
   C204       1.0     0.095740     0.595740     0.801406    Uiso  ? C
   C205       1.0     0.595740     0.095740     0.301406    Uiso  ? C
   C206       1.0     0.595740     0.095740     0.801406    Uiso  ? C
   C207       1.0     0.595740     0.595740     0.301406    Uiso  ? C
   C208       1.0     0.595740     0.595740     0.801406    Uiso  ? C
   C209       1.0     0.294335     0.095740     0.000000    Uiso  ? C
   C210       1.0     0.294335     0.095740     0.500000    Uiso  ? C
   C211       1.0     0.294335     0.595740     0.000000    Uiso  ? C
   C212       1.0     0.294335     0.595740     0.500000    Uiso  ? C
   C213       1.0     0.794334     0.095740     0.000000    Uiso  ? C
   C214       1.0     0.794334     0.095740     0.500000    Uiso  ? C
   C215       1.0     0.794334     0.595740     0.000000    Uiso  ? C
   C216       1.0     0.794334     0.595740     0.500000    Uiso  ? C
   C217       1.0     0.205665     0.404260     0.000000    Uiso  ? C
   C218       1.0     0.205665     0.404260     0.500000    Uiso  ? C
   C219       1.0     0.205665     0.904260     0.000000    Uiso  ? C
   C220       1.0     0.205665     0.904260     0.500000    Uiso  ? C
   C221       1.0     0.705666     0.404260     0.000000    Uiso  ? C
   C222       1.0     0.705666     0.404260     0.500000    Uiso  ? C
   C223       1.0     0.705666     0.904260     0.000000    Uiso  ? C
   C224       1.0     0.705666     0.904260     0.500000    Uiso  ? C
   C225       1.0     0.404260     0.205665     0.000000    Uiso  ? C
   C226       1.0     0.404260     0.205665     0.500000    Uiso  ? C
   C227       1.0     0.404260     0.705666     0.000000    Uiso  ? C
   C228       1.0     0.404260     0.705666     0.500000    Uiso  ? C
   C229       1.0     0.904260     0.205665     0.000000    Uiso  ? C
   C230       1.0     0.904260     0.205665     0.500000    Uiso  ? C
   C231       1.0     0.904260     0.705666     0.000000    Uiso  ? C
   C232       1.0     0.904260     0.705666     0.500000    Uiso  ? C
   C233       1.0     0.095740     0.294335     0.000000    Uiso  ? C
   C234       1.0     0.095740     0.294335     0.500000    Uiso  ? C
   C235       1.0     0.095740     0.794334     0.000000    Uiso  ? C
   C236       1.0     0.095740     0.794334     0.500000    Uiso  ? C
   C237       1.0     0.595740     0.294335     0.000000    Uiso  ? C
   C238       1.0     0.595740     0.294335     0.500000    Uiso  ? C
   C239       1.0     0.595740     0.794334     0.000000    Uiso  ? C
   C240       1.0     0.595740     0.794334     0.500000    Uiso  ? C
   C241       1.0     0.238296     0.283323     0.237810    Uiso  ? C
   C242       1.0     0.238296     0.283323     0.737810    Uiso  ? C
   C243       1.0     0.238296     0.783324     0.237810    Uiso  ? C
   C244       1.0     0.238296     0.783324     0.737810    Uiso  ? C
   C245       1.0     0.738297     0.283323     0.237810    Uiso  ? C
   C246       1.0     0.738297     0.283323     0.737810    Uiso  ? C
   C247       1.0     0.738297     0.783324     0.237810    Uiso  ? C
   C248       1.0     0.738297     0.783324     0.737810    Uiso  ? C
   C249       1.0     0.261703     0.216677     0.262190    Uiso  ? C
   C250       1.0     0.261703     0.216677     0.762190    Uiso  ? C
   C251       1.0     0.261703     0.716676     0.262190    Uiso  ? C
   C252       1.0     0.261703     0.716676     0.762190    Uiso  ? C
   C253       1.0     0.761703     0.216677     0.262190    Uiso  ? C
   C254       1.0     0.761703     0.216677     0.762190    Uiso  ? C
   C255       1.0     0.761703     0.716676     0.262190    Uiso  ? C
   C256       1.0     0.761703     0.716676     0.762190    Uiso  ? C
   C257       1.0     0.454486     0.499514     0.237810    Uiso  ? C
   C258       1.0     0.454486     0.499514     0.737810    Uiso  ? C
   C259       1.0     0.454486     0.999514     0.237810    Uiso  ? C
   C260       1.0     0.454486     0.999514     0.737810    Uiso  ? C
   C261       1.0     0.954486     0.499514     0.237810    Uiso  ? C
   C262       1.0     0.954486     0.499514     0.737810    Uiso  ? C
   C263       1.0     0.954486     0.999514     0.237810    Uiso  ? C
   C264       1.0     0.954486     0.999514     0.737810    Uiso  ? C
   C265       1.0     0.045513     0.000487     0.262190    Uiso  ? C
   C266       1.0     0.045513     0.000487     0.762190    Uiso  ? C
   C267       1.0     0.045513     0.500486     0.262190    Uiso  ? C
   C268       1.0     0.045513     0.500486     0.762190    Uiso  ? C
   C269       1.0     0.545514     0.000487     0.262190    Uiso  ? C
   C270       1.0     0.545514     0.000487     0.762190    Uiso  ? C
   C271       1.0     0.545514     0.500486     0.262190    Uiso  ? C
   C272       1.0     0.545514     0.500486     0.762190    Uiso  ? C
   C273       1.0     0.283323     0.045513     0.045027    Uiso  ? C
   C274       1.0     0.283323     0.045513     0.545027    Uiso  ? C
   C275       1.0     0.283323     0.545514     0.045027    Uiso  ? C
   C276       1.0     0.283323     0.545514     0.545027    Uiso  ? C
   C277       1.0     0.783324     0.045513     0.045027    Uiso  ? C
   C278       1.0     0.783324     0.045513     0.545027    Uiso  ? C
   C279       1.0     0.783324     0.545514     0.045027    Uiso  ? C
   C280       1.0     0.783324     0.545514     0.545027    Uiso  ? C
   C281       1.0     0.216677     0.454486     0.454973    Uiso  ? C
   C282       1.0     0.216677     0.454486     0.954973    Uiso  ? C
   C283       1.0     0.216677     0.954486     0.454973    Uiso  ? C
   C284       1.0     0.216677     0.954486     0.954973    Uiso  ? C
   C285       1.0     0.716676     0.454486     0.454973    Uiso  ? C
   C286       1.0     0.716676     0.454486     0.954973    Uiso  ? C
   C287       1.0     0.716676     0.954486     0.454973    Uiso  ? C
   C288       1.0     0.716676     0.954486     0.954973    Uiso  ? C
   C289       1.0     0.499514     0.261703     0.045027    Uiso  ? C
   C290       1.0     0.499514     0.261703     0.545027    Uiso  ? C
   C291       1.0     0.499514     0.761703     0.045027    Uiso  ? C
   C292       1.0     0.499514     0.761703     0.545027    Uiso  ? C
   C293       1.0     0.999514     0.261703     0.045027    Uiso  ? C
   C294       1.0     0.999514     0.261703     0.545027    Uiso  ? C
   C295       1.0     0.999514     0.761703     0.045027    Uiso  ? C
   C296       1.0     0.999514     0.761703     0.545027    Uiso  ? C
   C297       1.0     0.000487     0.238296     0.454973    Uiso  ? C
   C298       1.0     0.000487     0.238296     0.954973    Uiso  ? C
   C299       1.0     0.000486     0.738297     0.454973    Uiso  ? C
   C300       1.0     0.000487     0.738297     0.954973    Uiso  ? C
   C301       1.0     0.500486     0.238296     0.454973    Uiso  ? C
   C302       1.0     0.500486     0.238296     0.954973    Uiso  ? C
   C303       1.0     0.500486     0.738297     0.454973    Uiso  ? C
   C304       1.0     0.500486     0.738297     0.954973    Uiso  ? C
   C305       1.0     0.499514     0.454486     0.237810    Uiso  ? C
   C306       1.0     0.499514     0.454486     0.737810    Uiso  ? C
   C307       1.0     0.499514     0.954486     0.237810    Uiso  ? C
   C308       1.0     0.499514     0.954486     0.737810    Uiso  ? C
   C309       1.0     0.999514     0.454486     0.237810    Uiso  ? C
   C310       1.0     0.999514     0.454486     0.737810    Uiso  ? C
   C311       1.0     0.999514     0.954486     0.237810    Uiso  ? C
   C312       1.0     0.999514     0.954486     0.737810    Uiso  ? C
   C313       1.0     0.000487     0.045513     0.262190    Uiso  ? C
   C314       1.0     0.000486     0.045513     0.762190    Uiso  ? C
   C315       1.0     0.000487     0.545514     0.262190    Uiso  ? C
   C316       1.0     0.000487     0.545514     0.762190    Uiso  ? C
   C317       1.0     0.500486     0.045513     0.262190    Uiso  ? C
   C318       1.0     0.500486     0.045513     0.762190    Uiso  ? C
   C319       1.0     0.500486     0.545514     0.262190    Uiso  ? C
   C320       1.0     0.500486     0.545514     0.762190    Uiso  ? C
   C321       1.0     0.283323     0.238296     0.237810    Uiso  ? C
   C322       1.0     0.283323     0.238296     0.737810    Uiso  ? C
   C323       1.0     0.283323     0.738297     0.237810    Uiso  ? C
   C324       1.0     0.283323     0.738297     0.737810    Uiso  ? C
   C325       1.0     0.783324     0.238296     0.237810    Uiso  ? C
   C326       1.0     0.783324     0.238296     0.737810    Uiso  ? C
   C327       1.0     0.783324     0.738297     0.237810    Uiso  ? C
   C328       1.0     0.783324     0.738297     0.737810    Uiso  ? C
   C329       1.0     0.216677     0.261703     0.262190    Uiso  ? C
   C330       1.0     0.216677     0.261703     0.762190    Uiso  ? C
   C331       1.0     0.216677     0.761703     0.262190    Uiso  ? C
   C332       1.0     0.216677     0.761703     0.762190    Uiso  ? C
   C333       1.0     0.716676     0.261703     0.262190    Uiso  ? C
   C334       1.0     0.716676     0.261703     0.762190    Uiso  ? C
   C335       1.0     0.716676     0.761703     0.262190    Uiso  ? C
   C336       1.0     0.716676     0.761703     0.762190    Uiso  ? C
   C337       1.0     0.454486     0.216677     0.454973    Uiso  ? C
   C338       1.0     0.454486     0.216677     0.954973    Uiso  ? C
   C339       1.0     0.454486     0.716676     0.454973    Uiso  ? C
   C340       1.0     0.454486     0.716676     0.954973    Uiso  ? C
   C341       1.0     0.954486     0.216677     0.454973    Uiso  ? C
   C342       1.0     0.954486     0.216677     0.954973    Uiso  ? C
   C343       1.0     0.954486     0.716676     0.454973    Uiso  ? C
   C344       1.0     0.954486     0.716676     0.954973    Uiso  ? C
   C345       1.0     0.045513     0.283323     0.045027    Uiso  ? C
   C346       1.0     0.045513     0.283323     0.545027    Uiso  ? C
   C347       1.0     0.045513     0.783324     0.045027    Uiso  ? C
   C348       1.0     0.045513     0.783324     0.545027    Uiso  ? C
   C349       1.0     0.545514     0.283323     0.045027    Uiso  ? C
   C350       1.0     0.545514     0.283323     0.545027    Uiso  ? C
   C351       1.0     0.545514     0.783324     0.045027    Uiso  ? C
   C352       1.0     0.545514     0.783324     0.545027    Uiso  ? C
   C353       1.0     0.238296     0.000487     0.454973    Uiso  ? C
   C354       1.0     0.238296     0.000487     0.954973    Uiso  ? C
   C355       1.0     0.238296     0.500486     0.454973    Uiso  ? C
   C356       1.0     0.238296     0.500486     0.954973    Uiso  ? C
   C357       1.0     0.738297     0.000487     0.454973    Uiso  ? C
   C358       1.0     0.738297     0.000487     0.954973    Uiso  ? C
   C359       1.0     0.738297     0.500486     0.454973    Uiso  ? C
   C360       1.0     0.738297     0.500486     0.954973    Uiso  ? C
   C361       1.0     0.261703     0.499514     0.045027    Uiso  ? C
   C362       1.0     0.261703     0.499514     0.545027    Uiso  ? C
   C363       1.0     0.261703     0.999514     0.045027    Uiso  ? C
   C364       1.0     0.261703     0.999514     0.545027    Uiso  ? C
   C365       1.0     0.761703     0.499514     0.045027    Uiso  ? C
   C366       1.0     0.761703     0.499514     0.545027    Uiso  ? C
   C367       1.0     0.761703     0.999514     0.045027    Uiso  ? C
   C368       1.0     0.761703     0.999514     0.545027    Uiso  ? C
   N1         1.0     0.270389     0.498276     0.079645    Uiso  ? N
   N2         1.0     0.270389     0.498276     0.579645    Uiso  ? N
   N3         1.0     0.270389     0.998276     0.079645    Uiso  ? N
   N4         1.0     0.270389     0.998276     0.579645    Uiso  ? N
   N5         1.0     0.770389     0.498276     0.079645    Uiso  ? N
   N6         1.0     0.770389     0.498276     0.579645    Uiso  ? N
   N7         1.0     0.770389     0.998276     0.079645    Uiso  ? N
   N8         1.0     0.770389     0.998276     0.579645    Uiso  ? N
   N9         1.0     0.418631     0.190745     0.420355    Uiso  ? N
   N10        1.0     0.418631     0.190745     0.920355    Uiso  ? N
   N11        1.0     0.418631     0.690745     0.420355    Uiso  ? N
   N12        1.0     0.418631     0.690745     0.920355    Uiso  ? N
   N13        1.0     0.918631     0.190745     0.420355    Uiso  ? N
   N14        1.0     0.918631     0.190745     0.920355    Uiso  ? N
   N15        1.0     0.918631     0.690745     0.420355    Uiso  ? N
   N16        1.0     0.918631     0.690745     0.920355    Uiso  ? N
   N17        1.0     0.467137     0.306367     0.273504    Uiso  ? N
   N18        1.0     0.467137     0.306367     0.773504    Uiso  ? N
   N19        1.0     0.467137     0.806368     0.273504    Uiso  ? N
   N20        1.0     0.467137     0.806368     0.773504    Uiso  ? N
   N21        1.0     0.967137     0.306367     0.273504    Uiso  ? N
   N22        1.0     0.967137     0.306367     0.773504    Uiso  ? N
   N23        1.0     0.967137     0.806368     0.273504    Uiso  ? N
   N24        1.0     0.967137     0.806368     0.773504    Uiso  ? N
   N25        1.0     0.306367     0.032863     0.339231    Uiso  ? N
   N26        1.0     0.306367     0.032863     0.839230    Uiso  ? N
   N27        1.0     0.306367     0.532863     0.339231    Uiso  ? N
   N28        1.0     0.306367     0.532863     0.839230    Uiso  ? N
   N29        1.0     0.806368     0.032863     0.339231    Uiso  ? N
   N30        1.0     0.806368     0.032863     0.839230    Uiso  ? N
   N31        1.0     0.806368     0.532863     0.339231    Uiso  ? N
   N32        1.0     0.806368     0.532863     0.839230    Uiso  ? N
   O1         1.0     0.408451     0.279558     0.188010    Uiso  ? O
   O2         1.0     0.408451     0.279558     0.688010    Uiso  ? O
   O3         1.0     0.408451     0.779558     0.188010    Uiso  ? O
   O4         1.0     0.408451     0.779558     0.688010    Uiso  ? O
   O5         1.0     0.908451     0.279558     0.188010    Uiso  ? O
   O6         1.0     0.908451     0.279558     0.688010    Uiso  ? O
   O7         1.0     0.908451     0.779558     0.188010    Uiso  ? O
   O8         1.0     0.908451     0.779558     0.688010    Uiso  ? O
   O9         1.0     0.091549     0.220442     0.311990    Uiso  ? O
   O10        1.0     0.091549     0.220442     0.811990    Uiso  ? O
   O11        1.0     0.091549     0.720442     0.311990    Uiso  ? O
   O12        1.0     0.091549     0.720442     0.811990    Uiso  ? O
   O13        1.0     0.591549     0.220442     0.311990    Uiso  ? O
   O14        1.0     0.591549     0.220442     0.811990    Uiso  ? O
   O15        1.0     0.591549     0.720442     0.311990    Uiso  ? O
   O16        1.0     0.591549     0.720442     0.811990    Uiso  ? O
   O17        1.0     0.279558     0.091549     0.371107    Uiso  ? O
   O18        1.0     0.279558     0.091549     0.871107    Uiso  ? O
   O19        1.0     0.279558     0.591549     0.371107    Uiso  ? O
   O20        1.0     0.279558     0.591549     0.871107    Uiso  ? O
   O21        1.0     0.779558     0.091549     0.371107    Uiso  ? O
   O22        1.0     0.779558     0.091549     0.871107    Uiso  ? O
   O23        1.0     0.779558     0.591549     0.371107    Uiso  ? O
   O24        1.0     0.779558     0.591549     0.871107    Uiso  ? O
   O25        1.0     0.220442     0.408451     0.128893    Uiso  ? O
   O26        1.0     0.220442     0.408451     0.628893    Uiso  ? O
   O27        1.0     0.220442     0.908451     0.128893    Uiso  ? O
   O28        1.0     0.220442     0.908451     0.628893    Uiso  ? O
   O29        1.0     0.720442     0.408451     0.128893    Uiso  ? O
   O30        1.0     0.720442     0.408451     0.628893    Uiso  ? O
   O31        1.0     0.720442     0.908451     0.128893    Uiso  ? O
   O32        1.0     0.720442     0.908451     0.628893    Uiso  ? O
   O33        1.0     0.279558     0.408451     0.188010    Uiso  ? O
   O34        1.0     0.279558     0.408451     0.688010    Uiso  ? O
   O35        1.0     0.279558     0.908451     0.188010    Uiso  ? O
   O36        1.0     0.279558     0.908451     0.688010    Uiso  ? O
   O37        1.0     0.779558     0.408451     0.188010    Uiso  ? O
   O38        1.0     0.779558     0.408451     0.688010    Uiso  ? O
   O39        1.0     0.779558     0.908451     0.188010    Uiso  ? O
   O40        1.0     0.779558     0.908451     0.688010    Uiso  ? O
   O41        1.0     0.220442     0.091549     0.311990    Uiso  ? O
   O42        1.0     0.220442     0.091549     0.811990    Uiso  ? O
   O43        1.0     0.220442     0.591549     0.311990    Uiso  ? O
   O44        1.0     0.220442     0.591549     0.811990    Uiso  ? O
   O45        1.0     0.720442     0.091549     0.311990    Uiso  ? O
   O46        1.0     0.720442     0.091549     0.811990    Uiso  ? O
   O47        1.0     0.720442     0.591549     0.311990    Uiso  ? O
   O48        1.0     0.720442     0.591549     0.811990    Uiso  ? O
   O49        1.0     0.408451     0.220442     0.128893    Uiso  ? O
   O50        1.0     0.408451     0.220442     0.628893    Uiso  ? O
   O51        1.0     0.408451     0.720442     0.128893    Uiso  ? O
   O52        1.0     0.408451     0.720442     0.628893    Uiso  ? O
   O53        1.0     0.908451     0.220442     0.128893    Uiso  ? O
   O54        1.0     0.908451     0.220442     0.628893    Uiso  ? O
   O55        1.0     0.908451     0.720442     0.128893    Uiso  ? O
   O56        1.0     0.908451     0.720442     0.628893    Uiso  ? O
   O57        1.0     0.091549     0.279558     0.371107    Uiso  ? O
   O58        1.0     0.091549     0.279558     0.871107    Uiso  ? O
   O59        1.0     0.091549     0.779558     0.371107    Uiso  ? O
   O60        1.0     0.091549     0.779558     0.871107    Uiso  ? O
   O61        1.0     0.591549     0.279558     0.371107    Uiso  ? O
   O62        1.0     0.591549     0.279558     0.871107    Uiso  ? O
   O63        1.0     0.591549     0.779558     0.371107    Uiso  ? O
   O64        1.0     0.591549     0.779558     0.871107    Uiso  ? O
   O65        1.0     0.315747     0.216172     0.099575    Uiso  ? O
   O66        1.0     0.315747     0.216172     0.599576    Uiso  ? O
   O67        1.0     0.315747     0.716172     0.099575    Uiso  ? O
   O68        1.0     0.315747     0.716172     0.599576    Uiso  ? O
   O69        1.0     0.815747     0.216172     0.099575    Uiso  ? O
   O70        1.0     0.815747     0.216172     0.599576    Uiso  ? O
   O71        1.0     0.815747     0.716172     0.099575    Uiso  ? O
   O72        1.0     0.815747     0.716172     0.599576    Uiso  ? O
   O73        1.0     0.184253     0.283828     0.400425    Uiso  ? O
   O74        1.0     0.184253     0.283828     0.900424    Uiso  ? O
   O75        1.0     0.184253     0.783828     0.400425    Uiso  ? O
   O76        1.0     0.184253     0.783828     0.900424    Uiso  ? O
   O77        1.0     0.684253     0.283828     0.400425    Uiso  ? O
   O78        1.0     0.684253     0.283828     0.900424    Uiso  ? O
   O79        1.0     0.684253     0.783828     0.400425    Uiso  ? O
   O80        1.0     0.684253     0.783828     0.900424    Uiso  ? O
   O81        1.0     0.383404     0.283828     0.099575    Uiso  ? O
   O82        1.0     0.383404     0.283828     0.599576    Uiso  ? O
   O83        1.0     0.383404     0.783828     0.099575    Uiso  ? O
   O84        1.0     0.383404     0.783828     0.599576    Uiso  ? O
   O85        1.0     0.883403     0.283828     0.099575    Uiso  ? O
   O86        1.0     0.883403     0.283828     0.599576    Uiso  ? O
   O87        1.0     0.883403     0.783828     0.099575    Uiso  ? O
   O88        1.0     0.883403     0.783828     0.599576    Uiso  ? O
   O89        1.0     0.116596     0.216172     0.400425    Uiso  ? O
   O90        1.0     0.116596     0.216172     0.900424    Uiso  ? O
   O91        1.0     0.116596     0.716172     0.400425    Uiso  ? O
   O92        1.0     0.116596     0.716172     0.900424    Uiso  ? O
   O93        1.0     0.616597     0.216172     0.400425    Uiso  ? O
   O94        1.0     0.616597     0.216172     0.900424    Uiso  ? O
   O95        1.0     0.616597     0.716172     0.400425    Uiso  ? O
   O96        1.0     0.616597     0.716172     0.900424    Uiso  ? O
   O97        1.0     0.216172     0.116596     0.400425    Uiso  ? O
   O98        1.0     0.216172     0.116596     0.900424    Uiso  ? O
   O99        1.0     0.216172     0.616597     0.400425    Uiso  ? O
   O100       1.0     0.216172     0.616597     0.900424    Uiso  ? O
   O101       1.0     0.716172     0.116596     0.400425    Uiso  ? O
   O102       1.0     0.716172     0.116596     0.900424    Uiso  ? O
   O103       1.0     0.716172     0.616597     0.400425    Uiso  ? O
   O104       1.0     0.716172     0.616597     0.900424    Uiso  ? O
   O105       1.0     0.283828     0.383404     0.099575    Uiso  ? O
   O106       1.0     0.283828     0.383404     0.599576    Uiso  ? O
   O107       1.0     0.283828     0.883403     0.099575    Uiso  ? O
   O108       1.0     0.283828     0.883403     0.599576    Uiso  ? O
   O109       1.0     0.783828     0.383404     0.099575    Uiso  ? O
   O110       1.0     0.783828     0.383404     0.599576    Uiso  ? O
   O111       1.0     0.783828     0.883403     0.099575    Uiso  ? O
   O112       1.0     0.783828     0.883403     0.599576    Uiso  ? O
   O113       1.0     0.283828     0.184253     0.400425    Uiso  ? O
   O114       1.0     0.283828     0.184253     0.900424    Uiso  ? O
   O115       1.0     0.283828     0.684253     0.400425    Uiso  ? O
   O116       1.0     0.283828     0.684253     0.900424    Uiso  ? O
   O117       1.0     0.783828     0.184253     0.400425    Uiso  ? O
   O118       1.0     0.783828     0.184253     0.900424    Uiso  ? O
   O119       1.0     0.783828     0.684253     0.400425    Uiso  ? O
   O120       1.0     0.783828     0.684253     0.900424    Uiso  ? O
   O121       1.0     0.216172     0.315747     0.099575    Uiso  ? O
   O122       1.0     0.216172     0.315747     0.599576    Uiso  ? O
   O123       1.0     0.216172     0.815747     0.099575    Uiso  ? O
   O124       1.0     0.216172     0.815747     0.599576    Uiso  ? O
   O125       1.0     0.716172     0.315747     0.099575    Uiso  ? O
   O126       1.0     0.716172     0.315747     0.599576    Uiso  ? O
   O127       1.0     0.716172     0.815747     0.099575    Uiso  ? O
   O128       1.0     0.716172     0.815747     0.599576    Uiso  ? O
   O129       1.0     0.324172     0.282452     0.187732    Uiso  ? O
   O130       1.0     0.324172     0.282452     0.687732    Uiso  ? O
   O131       1.0     0.324172     0.782452     0.187732    Uiso  ? O
   O132       1.0     0.324172     0.782452     0.687732    Uiso  ? O
   O133       1.0     0.824172     0.282452     0.187732    Uiso  ? O
   O134       1.0     0.824172     0.282452     0.687732    Uiso  ? O
   O135       1.0     0.824172     0.782452     0.187732    Uiso  ? O
   O136       1.0     0.824172     0.782452     0.687732    Uiso  ? O
   O137       1.0     0.094719     0.136441     0.312268    Uiso  ? O
   O138       1.0     0.094719     0.136441     0.812268    Uiso  ? O
   O139       1.0     0.094719     0.636441     0.312268    Uiso  ? O
   O140       1.0     0.094719     0.636441     0.812268    Uiso  ? O
   O141       1.0     0.594720     0.136441     0.312268    Uiso  ? O
   O142       1.0     0.594720     0.136441     0.812268    Uiso  ? O
   O143       1.0     0.594720     0.636441     0.312268    Uiso  ? O
   O144       1.0     0.594720     0.636441     0.812268    Uiso  ? O
   O145       1.0     0.282452     0.094719     0.458279    Uiso  ? O
   O146       1.0     0.282452     0.094719     0.958279    Uiso  ? O
   O147       1.0     0.282452     0.594720     0.458279    Uiso  ? O
   O148       1.0     0.282452     0.594720     0.958279    Uiso  ? O
   O149       1.0     0.782452     0.094719     0.458279    Uiso  ? O
   O150       1.0     0.782452     0.094719     0.958279    Uiso  ? O
   O151       1.0     0.782452     0.594720     0.458279    Uiso  ? O
   O152       1.0     0.782452     0.594720     0.958279    Uiso  ? O
   O153       1.0     0.217549     0.405281     0.041721    Uiso  ? O
   O154       1.0     0.217549     0.405281     0.541721    Uiso  ? O
   O155       1.0     0.217549     0.905280     0.041721    Uiso  ? O
   O156       1.0     0.217549     0.905280     0.541721    Uiso  ? O
   O157       1.0     0.717548     0.405281     0.041721    Uiso  ? O
   O158       1.0     0.717548     0.405281     0.541721    Uiso  ? O
   O159       1.0     0.717548     0.905280     0.041721    Uiso  ? O
   O160       1.0     0.717548     0.905280     0.541721    Uiso  ? O
   O161       1.0     0.363560     0.175828     0.458279    Uiso  ? O
   O162       1.0     0.363560     0.175828     0.958279    Uiso  ? O
   O163       1.0     0.363560     0.675828     0.458279    Uiso  ? O
   O164       1.0     0.363560     0.675828     0.958279    Uiso  ? O
   O165       1.0     0.863559     0.175828     0.458279    Uiso  ? O
   O166       1.0     0.863559     0.175828     0.958279    Uiso  ? O
   O167       1.0     0.863559     0.675828     0.458279    Uiso  ? O
   O168       1.0     0.863559     0.675828     0.958279    Uiso  ? O
   O169       1.0     0.136441     0.324172     0.041721    Uiso  ? O
   O170       1.0     0.136441     0.324172     0.541721    Uiso  ? O
   O171       1.0     0.136441     0.824172     0.041721    Uiso  ? O
   O172       1.0     0.136441     0.824172     0.541721    Uiso  ? O
   O173       1.0     0.636441     0.324172     0.041721    Uiso  ? O
   O174       1.0     0.636441     0.324172     0.541721    Uiso  ? O
   O175       1.0     0.636441     0.824172     0.041721    Uiso  ? O
   O176       1.0     0.636441     0.824172     0.541721    Uiso  ? O
   O177       1.0     0.136441     0.094719     0.312268    Uiso  ? O
   O178       1.0     0.136441     0.094719     0.812268    Uiso  ? O
   O179       1.0     0.136441     0.594720     0.312268    Uiso  ? O
   O180       1.0     0.136441     0.594720     0.812268    Uiso  ? O
   O181       1.0     0.636441     0.094719     0.312268    Uiso  ? O
   O182       1.0     0.636441     0.094719     0.812268    Uiso  ? O
   O183       1.0     0.636441     0.594720     0.312268    Uiso  ? O
   O184       1.0     0.636441     0.594720     0.812268    Uiso  ? O
   O185       1.0     0.282452     0.324172     0.187732    Uiso  ? O
   O186       1.0     0.282452     0.324172     0.687732    Uiso  ? O
   O187       1.0     0.282452     0.824172     0.187732    Uiso  ? O
   O188       1.0     0.282452     0.824172     0.687732    Uiso  ? O
   O189       1.0     0.782452     0.324172     0.187732    Uiso  ? O
   O190       1.0     0.782452     0.324172     0.687732    Uiso  ? O
   O191       1.0     0.782452     0.824172     0.187732    Uiso  ? O
   O192       1.0     0.782452     0.824172     0.687732    Uiso  ? O
   O193       1.0     0.405281     0.217549     0.041721    Uiso  ? O
   O194       1.0     0.405281     0.217549     0.541721    Uiso  ? O
   O195       1.0     0.405281     0.717548     0.041721    Uiso  ? O
   O196       1.0     0.405281     0.717548     0.541721    Uiso  ? O
   O197       1.0     0.905280     0.217549     0.041721    Uiso  ? O
   O198       1.0     0.905280     0.217549     0.541721    Uiso  ? O
   O199       1.0     0.905280     0.717548     0.041721    Uiso  ? O
   O200       1.0     0.905280     0.717548     0.541721    Uiso  ? O
   O201       1.0     0.094719     0.282452     0.458279    Uiso  ? O
   O202       1.0     0.094719     0.282452     0.958279    Uiso  ? O
   O203       1.0     0.094719     0.782452     0.458279    Uiso  ? O
   O204       1.0     0.094719     0.782452     0.958279    Uiso  ? O
   O205       1.0     0.594720     0.282452     0.458279    Uiso  ? O
   O206       1.0     0.594720     0.282452     0.958279    Uiso  ? O
   O207       1.0     0.594720     0.782452     0.458279    Uiso  ? O
   O208       1.0     0.594720     0.782452     0.958279    Uiso  ? O
   O209       1.0     0.324172     0.136441     0.041721    Uiso  ? O
   O210       1.0     0.324172     0.136441     0.541721    Uiso  ? O
   O211       1.0     0.324172     0.636441     0.041721    Uiso  ? O
   O212       1.0     0.324172     0.636441     0.541721    Uiso  ? O
   O213       1.0     0.824172     0.136441     0.041721    Uiso  ? O
   O214       1.0     0.824172     0.136441     0.541721    Uiso  ? O
   O215       1.0     0.824172     0.636441     0.041721    Uiso  ? O
   O216       1.0     0.824172     0.636441     0.541721    Uiso  ? O
   O217       1.0     0.175828     0.363560     0.458279    Uiso  ? O
   O218       1.0     0.175828     0.363560     0.958279    Uiso  ? O
   O219       1.0     0.175828     0.863559     0.458279    Uiso  ? O
   O220       1.0     0.175828     0.863559     0.958279    Uiso  ? O
   O221       1.0     0.675828     0.363560     0.458279    Uiso  ? O
   O222       1.0     0.675828     0.363560     0.958279    Uiso  ? O
   O223       1.0     0.675828     0.863559     0.458279    Uiso  ? O
   O224       1.0     0.675828     0.863559     0.958279    Uiso  ? O
   O225       1.0     0.304873     0.304873     0.109745    Uiso  ? O
   O226       1.0     0.304873     0.304873     0.609745    Uiso  ? O
   O227       1.0     0.304873     0.804873     0.109745    Uiso  ? O
   O228       1.0     0.304873     0.804873     0.609745    Uiso  ? O
   O229       1.0     0.804873     0.304873     0.109745    Uiso  ? O
   O230       1.0     0.804873     0.304873     0.609745    Uiso  ? O
   O231       1.0     0.804873     0.804873     0.109745    Uiso  ? O
   O232       1.0     0.804873     0.804873     0.609745    Uiso  ? O
   O233       1.0     0.195128     0.195128     0.390255    Uiso  ? O
   O234       1.0     0.195128     0.195128     0.890255    Uiso  ? O
   O235       1.0     0.195128     0.695127     0.390255    Uiso  ? O
   O236       1.0     0.195128     0.695127     0.890255    Uiso  ? O
   O237       1.0     0.695127     0.195128     0.390255    Uiso  ? O
   O238       1.0     0.695127     0.195128     0.890255    Uiso  ? O
   O239       1.0     0.695127     0.695127     0.390255    Uiso  ? O
   O240       1.0     0.695127     0.695127     0.890255    Uiso  ? O
   O241       1.0     0.304873     0.195128     0.000000    Uiso  ? O
   O242       1.0     0.304873     0.195128     0.500000    Uiso  ? O
   O243       1.0     0.304873     0.695127     0.000000    Uiso  ? O
   O244       1.0     0.304873     0.695127     0.500000    Uiso  ? O
   O245       1.0     0.804873     0.195128     0.000000    Uiso  ? O
   O246       1.0     0.804873     0.195128     0.500000    Uiso  ? O
   O247       1.0     0.804873     0.695127     0.000000    Uiso  ? O
   O248       1.0     0.804873     0.695127     0.500000    Uiso  ? O
   O249       1.0     0.195128     0.304873     0.000000    Uiso  ? O
   O250       1.0     0.195128     0.304873     0.500000    Uiso  ? O
   O251       1.0     0.195128     0.804873     0.000000    Uiso  ? O
   O252       1.0     0.195128     0.804873     0.500000    Uiso  ? O
   O253       1.0     0.695127     0.304873     0.000000    Uiso  ? O
   O254       1.0     0.695127     0.304873     0.500000    Uiso  ? O
   O255       1.0     0.695127     0.804873     0.000000    Uiso  ? O
   O256       1.0     0.695127     0.804873     0.500000    Uiso  ? O
