@<TRIPOS>MOLECULE
2734162
 25 25 0 0 0
SMALL
GASTEIGER

@<TRIPOS>ATOM
      1 N          -0.2613    0.7456   -0.2884 N.ar    1  UNL1       -0.2957
      2 N          -1.9715   -0.5267   -0.0367 N.ar    1  UNL1       -0.1903
      3 C           1.0011    1.2776   -0.7921 C.3     1  UNL1        0.0281
      4 C           2.2119    0.7404   -0.0322 C.3     1  UNL1       -0.0350
      5 C           2.3322   -0.7819   -0.1126 C.3     1  UNL1       -0.0543
      6 C          -0.8417   -0.3656   -0.7331 C.ar    1  UNL1        0.2477
      7 C          -1.0157    1.3109    0.7020 C.ar    1  UNL1        0.0732
      8 C          -2.1051    0.5024    0.8641 C.ar    1  UNL1        0.1885
      9 C           3.5545   -1.2829    0.6410 C.3     1  UNL1       -0.0652
     10 C          -2.9045   -1.6197   -0.2120 C.3     1  UNL1        0.1419
     11 H           1.0767    1.0259   -1.8567 H       1  UNL1        0.0493
     12 H           0.9711    2.3711   -0.7220 H       1  UNL1        0.0493
     13 H           2.1394    1.0415    1.0200 H       1  UNL1        0.0282
     14 H           3.1187    1.2037   -0.4386 H       1  UNL1        0.0282
     15 H           1.4488   -1.2603    0.3224 H       1  UNL1        0.0263
     16 H           2.3963   -1.0973   -1.1602 H       1  UNL1        0.0263
     17 H          -0.4757   -1.0156   -1.5126 H       1  UNL1        0.1600
     18 H          -0.6711    2.2173    1.1611 H       1  UNL1        0.0871
     19 H          -2.9682    0.5129    1.5015 H       1  UNL1        0.1392
     20 H           3.5011   -1.0117    1.7002 H       1  UNL1        0.0230
     21 H           4.4734   -0.8593    0.2233 H       1  UNL1        0.0230
     22 H           3.6216   -2.3731    0.5724 H       1  UNL1        0.0230
     23 H          -2.5387   -2.3062   -0.9803 H       1  UNL1        0.0994
     24 H          -3.0087   -2.1603    0.7327 H       1  UNL1        0.0994
     25 H          -3.8744   -1.2192   -0.5192 H       1  UNL1        0.0994
@<TRIPOS>UNITY_ATOM_ATTR
2 1
charge 1
@<TRIPOS>BOND
     1     1     3    1
     2     1     6   ar
     3     1     7   ar
     4     2     6   ar
     5     2     8   ar
     6     2    10    1
     7     3     4    1
     8     3    11    1
     9     3    12    1
    10     4     5    1
    11     4    13    1
    12     4    14    1
    13     5     9    1
    14     5    15    1
    15     5    16    1
    16     6    17    1
    17     7     8   ar
    18     7    18    1
    19     8    19    1
    20     9    20    1
    21     9    21    1
    22     9    22    1
    23    10    23    1
    24    10    24    1
    25    10    25    1
