@<TRIPOS>MOLECULE
2734162
   25    25     1     0     0
SMALL
bcc


@<TRIPOS>ATOM
      1 N           -0.2610     0.7460    -0.2880 na         1 UNL      -0.015100
      2 N1          -1.9720    -0.5270    -0.0370 na         1 UNL      -0.018100
      3 C            1.0010     1.2780    -0.7920 c3         1 UNL       0.016300
      4 C1           2.2120     0.7400    -0.0320 c3         1 UNL      -0.108400
      5 C2           2.3320    -0.7820    -0.1130 c3         1 UNL      -0.082400
      6 C3          -0.8420    -0.3660    -0.7330 cc         1 UNL      -0.033600
      7 C4          -1.0160     1.3110     0.7020 cc         1 UNL      -0.116300
      8 C5          -2.1050     0.5020     0.8640 cd         1 UNL      -0.121300
      9 C6           3.5540    -1.2830     0.6410 c3         1 UNL      -0.099100
     10 C7          -2.9050    -1.6200    -0.2120 c3         1 UNL      -0.005400
     11 H            1.0770     1.0260    -1.8570 h1         1 UNL       0.094700
     12 H1           0.9710     2.3710    -0.7220 h1         1 UNL       0.094700
     13 H2           2.1390     1.0420     1.0200 hc         1 UNL       0.081200
     14 H3           3.1190     1.2040    -0.4390 hc         1 UNL       0.081200
     15 H4           1.4490    -1.2600     0.3220 hc         1 UNL       0.034700
     16 H5           2.3960    -1.0970    -1.1600 hc         1 UNL       0.034700
     17 H6          -0.4760    -1.0160    -1.5130 h5         1 UNL       0.256000
     18 H7          -0.6710     2.2170     1.1610 h4         1 UNL       0.232000
     19 H8          -2.9680     0.5130     1.5020 h4         1 UNL       0.233000
     20 H9           3.5010    -1.0120     1.7000 hc         1 UNL       0.051367
     21 H10          4.4730    -0.8590     0.2230 hc         1 UNL       0.051367
     22 H11          3.6220    -2.3730     0.5720 hc         1 UNL       0.051367
     23 H12         -2.5390    -2.3060    -0.9800 h1         1 UNL       0.095700
     24 H13         -3.0090    -2.1600     0.7330 h1         1 UNL       0.095700
     25 H14         -3.8740    -1.2190    -0.5190 h1         1 UNL       0.095700
@<TRIPOS>BOND
     1     1     3 1   
     2     1     6 2   
     3     1     7 1   
     4     2     6 1   
     5     2     8 1   
     6     2    10 1   
     7     3     4 1   
     8     3    11 1   
     9     3    12 1   
    10     4     5 1   
    11     4    13 1   
    12     4    14 1   
    13     5     9 1   
    14     5    15 1   
    15     5    16 1   
    16     6    17 1   
    17     7     8 2   
    18     7    18 1   
    19     8    19 1   
    20     9    20 1   
    21     9    21 1   
    22     9    22 1   
    23    10    23 1   
    24    10    24 1   
    25    10    25 1   
@<TRIPOS>SUBSTRUCTURE
     1 UNL         1 TEMP              0 ****  ****    0 ROOT
