@<TRIPOS>MOLECULE
*****
   15    14     1     0     0
SMALL
bcc


@<TRIPOS>ATOM
      1 S           -1.4920    -0.7820     0.0040 s6         1 UNL       1.483700
      2 S1           1.4920    -0.7820     0.0040 sy         1 UNL       1.682400
      3 F           -2.5410     1.2460    -1.2220 f          1 UNL      -0.271967
      4 F1          -3.8350     0.2830     0.2470 f          1 UNL      -0.271967
      5 F2          -2.1840     1.5460     0.9100 f          1 UNL      -0.271967
      6 F3           3.8340     0.2840     0.2500 f          1 UNL      -0.271967
      7 F4           2.5440     1.2440    -1.2240 f          1 UNL      -0.271967
      8 F5           2.1820     1.5470     0.9080 f          1 UNL      -0.271967
      9 O           -1.4590    -1.2830     1.3640 o          1 UNL      -0.613200
     10 O1          -1.8650    -1.6350    -1.1070 o          1 UNL      -0.656800
     11 O2           1.8650    -1.6350    -1.1070 o          1 UNL      -0.656800
     12 O3           1.4590    -1.2830     1.3640 o          1 UNL      -0.656800
     13 N            0.0000    -0.0050    -0.3590 ne         1 UNL      -1.059100
     14 C           -2.5510     0.6280    -0.0170 c3         1 UNL       0.554700
     15 C1           2.5510     0.6280    -0.0170 c3         1 UNL       0.554700
@<TRIPOS>BOND
     1     1     9 1   
     2     1    10 2   
     3     1    13 2   
     4     1    14 1   
     5     2    11 2   
     6     2    12 2   
     7     2    13 1   
     8     2    15 1   
     9     3    14 1   
    10     4    14 1   
    11     5    14 1   
    12     6    15 1   
    13     7    15 1   
    14     8    15 1   
@<TRIPOS>SUBSTRUCTURE
     1 UNL         1 TEMP              0 ****  ****    0 ROOT
