@<TRIPOS>MOLECULE
*****
 15 14 0 0 0
SMALL
GASTEIGER

@<TRIPOS>ATOM
      1 S          -1.4918   -0.7822    0.0044 S.O2    1  UNL1        0.1638
      2 S           1.4920   -0.7823    0.0044 S.O2    1  UNL1        0.1638
      3 F          -2.5414    1.2459   -1.2225 F       1  UNL1       -0.1492
      4 F          -3.8350    0.2832    0.2467 F       1  UNL1       -0.1492
      5 F          -2.1845    1.5458    0.9103 F       1  UNL1       -0.1492
      6 F           3.8344    0.2839    0.2502 F       1  UNL1       -0.1492
      7 F           2.5440    1.2437   -1.2235 F       1  UNL1       -0.1492
      8 F           2.1823    1.5474    0.9079 F       1  UNL1       -0.1492
      9 O          -1.4590   -1.2834    1.3640 O.2     1  UNL1       -0.1468
     10 O          -1.8646   -1.6348   -1.1067 O.2     1  UNL1       -0.1468
     11 O           1.8646   -1.6350   -1.1066 O.2     1  UNL1       -0.1468
     12 O           1.4590   -1.2834    1.3640 O.2     1  UNL1       -0.1468
     13 N           0.0000   -0.0052   -0.3594 N.3     1  UNL1        0.0775
     14 C          -2.5513    0.6281   -0.0165 C.3     1  UNL1        0.5387
     15 C           2.5514    0.6282   -0.0166 C.3     1  UNL1        0.5387
@<TRIPOS>BOND
     1     1     9    2
     2     1    10    2
     3     1    13    1
     4     1    14    1
     5     2    11    2
     6     2    12    2
     7     2    13    1
     8     2    15    1
     9     3    14    1
    10     4    14    1
    11     5    14    1
    12     6    15    1
    13     7    15    1
    14     8    15    1
